5460768
  -OEChem-01282514103D

 26 28  0     1  0  0  0  0  0999 V2000
    0.4697    1.1256   -0.6365 C   0  0  2  0  0  0  0  0  0  0  0  0
   -0.4698    1.1257    0.6362 C   0  0  2  0  0  0  0  0  0  0  0  0
   -0.4698   -1.1257   -0.6362 C   0  0  2  0  0  0  0  0  0  0  0  0
    0.4698   -1.1256    0.6366 C   0  0  2  0  0  0  0  0  0  0  0  0
    0.0000   -0.0002   -1.5817 C   0  0  0  0  0  0  0  0  0  0  0  0
    0.0000    0.0003    1.5817 C   0  0  0  0  0  0  0  0  0  0  0  0
   -1.9106    0.7385    0.2315 C   0  0  0  0  0  0  0  0  0  0  0  0
   -1.9105   -0.7387   -0.2315 C   0  0  0  0  0  0  0  0  0  0  0  0
    1.9105    0.7385   -0.2318 C   0  0  0  0  0  0  0  0  0  0  0  0
    1.9106   -0.7385    0.2317 C   0  0  0  0  0  0  0  0  0  0  0  0
    0.4483    2.0966   -1.1412 H   0  0  0  0  0  0  0  0  0  0  0  0
   -0.4485    2.0970    1.1406 H   0  0  0  0  0  0  0  0  0  0  0  0
   -0.4483   -2.0969   -1.1406 H   0  0  0  0  0  0  0  0  0  0  0  0
    0.4484   -2.0966    1.1414 H   0  0  0  0  0  0  0  0  0  0  0  0
    0.8076   -0.3415   -2.2406 H   0  0  0  0  0  0  0  0  0  0  0  0
   -0.8075    0.3407   -2.2407 H   0  0  0  0  0  0  0  0  0  0  0  0
    0.8076    0.3417    2.2406 H   0  0  0  0  0  0  0  0  0  0  0  0
   -0.8076   -0.3407    2.2407 H   0  0  0  0  0  0  0  0  0  0  0  0
   -2.6025    0.8603    1.0729 H   0  0  0  0  0  0  0  0  0  0  0  0
   -2.2662    1.3948   -0.5716 H   0  0  0  0  0  0  0  0  0  0  0  0
   -2.6024   -0.8604   -1.0729 H   0  0  0  0  0  0  0  0  0  0  0  0
   -2.2660   -1.3950    0.5716 H   0  0  0  0  0  0  0  0  0  0  0  0
    2.2661    1.3952    0.5711 H   0  0  0  0  0  0  0  0  0  0  0  0
    2.6023    0.8600   -1.0733 H   0  0  0  0  0  0  0  0  0  0  0  0
    2.2661   -1.3951   -0.5712 H   0  0  0  0  0  0  0  0  0  0  0  0
    2.6025   -0.8599    1.0732 H   0  0  0  0  0  0  0  0  0  0  0  0
  1  2  1  0  0  0  0
  1  5  1  0  0  0  0
  1  9  1  0  0  0  0
  1 11  1  0  0  0  0
  2  6  1  0  0  0  0
  2  7  1  0  0  0  0
  2 12  1  0  0  0  0
  3  4  1  0  0  0  0
  3  5  1  0  0  0  0
  3  8  1  0  0  0  0
  3 13  1  0  0  0  0
  4  6  1  0  0  0  0
  4 10  1  0  0  0  0
  4 14  1  0  0  0  0
  5 15  1  0  0  0  0
  5 16  1  0  0  0  0
  6 17  1  0  0  0  0
  6 18  1  0  0  0  0
  7  8  1  0  0  0  0
  7 19  1  0  0  0  0
  7 20  1  0  0  0  0
  8 21  1  0  0  0  0
  8 22  1  0  0  0  0
  9 10  1  0  0  0  0
  9 23  1  0  0  0  0
  9 24  1  0  0  0  0
 10 25  1  0  0  0  0
 10 26  1  0  0  0  0
M  END
> <PUBCHEM_COMPOUND_CID>
5460768

> <PUBCHEM_CONFORMER_RMSD>
0.4

> <PUBCHEM_CONFORMER_DIVERSEORDER>
1
2

> <PUBCHEM_MMFF94_PARTIAL_CHARGES>
0

> <PUBCHEM_EFFECTIVE_ROTOR_COUNT>
1.2

> <PUBCHEM_PHARMACOPHORE_FEATURES>
1
10 1 2 3 4 5 6 7 8 9 10 rings

> <PUBCHEM_HEAVY_ATOM_COUNT>
10

> <PUBCHEM_ATOM_DEF_STEREO_COUNT>
0

> <PUBCHEM_ATOM_UDEF_STEREO_COUNT>
4

> <PUBCHEM_BOND_DEF_STEREO_COUNT>
0

> <PUBCHEM_BOND_UDEF_STEREO_COUNT>
0

> <PUBCHEM_ISOTOPIC_ATOM_COUNT>
0

> <PUBCHEM_COMPONENT_COUNT>
1

> <PUBCHEM_CACTVS_TAUTO_COUNT>
1

> <PUBCHEM_CONFORMER_ID>
0053532000000001

> <PUBCHEM_MMFF94_ENERGY>
41.9827

> <PUBCHEM_FEATURE_SELFOVERLAP>
5.074

> <PUBCHEM_SHAPE_FINGERPRINT>
12423570 1 15224274285343897590
13024252 1 15793433825483734282
137420 1 12573497633550630913
16945 1 18410856559639789574
18185500 45 18410006650041799299
21040471 1 17845377639496667937
29004967 10 16805324374819306080
369184 2 18201430407118635888
5084963 1 17702390554582469978
68250623 7 18410583885051217827

> <PUBCHEM_SHAPE_MULTIPOLES>
205.8
2.16
1.34
1.3
0
0
0
0
0
0
0
0
0
-0.27

> <PUBCHEM_SHAPE_SELFOVERLAP>
446.972

> <PUBCHEM_SHAPE_VOLUME>
106.7

> <PUBCHEM_COORDINATE_TYPE>
2
5
10

$$$$
